38
Coordinates from ORCA-job honokiol
  O           0.19611796018276      2.48380048256434     -1.26207358439736
  O          -4.16294352130547     -0.94291321332159      1.49027658038782
  C           1.04758977860454      0.62354085734233     -0.05470634025341
  C          -0.32864523034951      0.23907418862539      0.36205347299407
  C          -2.53875365164814     -0.64060755498424     -0.20762355247308
  C          -1.25181113962544     -0.25086081795734     -0.56617155331357
  C           3.46035580539448      0.20953284434649     -0.00004856894150
  C           2.15033134077991     -0.12305450891060      0.35610396291507
  C           1.27675879272998      1.74785453760699     -0.86247063538803
  C          -0.72509937204987      0.33703926856085      1.69343551286073
  C          -2.90430786222270     -0.53755534907763      1.13991677033563
  C          -3.52085822047479     -1.14923588479548     -1.23968406541403
  C           4.62692764354105     -0.63147831584162      0.48095764502666
  C           3.65338190996143      1.32859088979118     -0.80151901481751
  C          -2.00214801894017     -0.05133880779044      2.08081652659772
  C           2.57336558918262      2.09335506146742     -1.23001300566122
  C          -4.51013786705316     -0.10291823452093     -1.68824519368242
  C           4.53187587461916     -2.08057323592941      0.08578570448638
  C          -5.82887281184395     -0.24228447306431     -1.66942539077258
  C           4.60969667782938     -3.10620087500170      0.92467105653458
  H          -0.95476046531695     -0.33325050710226     -1.60510680103996
  H           1.97500921263343     -0.99901566196089      0.96960906335225
  H          -0.03360855831994      0.71778117943527      2.43460236655257
  H          -2.95403391907320     -1.48379326470194     -2.11513427576305
  H          -4.05868746798609     -2.01905322144527     -0.85652688138416
  H           5.55173256041908     -0.21501345318999      0.06708503675097
  H           4.72128304213269     -0.56044917558707      1.56944491308212
  H           4.65564175061926      1.61501162888574     -1.09834309612632
  H          -2.30168582705149      0.02287468121863      3.12148811113102
  H           2.73988895481054      2.96758099141046     -1.85143919549414
  H          -4.07349426031610      0.82145710239463     -2.05818139636674
  H           4.39123353130260     -2.26609184281273     -0.97610623477734
  H           0.49642411705949      3.22536629218530     -1.79914969992095
  H          -4.29443009722781     -0.80093622482928      2.43407859606171
  H          -6.48923418319975      0.54034838746846     -2.02246250446734
  H          -6.29950586812872     -1.14365155189221     -1.29237965708116
  H           4.54666655636529     -4.13104059692243      0.58040476117802
  H           4.73953724396556     -2.95949162166410      1.99178056728856
