58
Coordinates from ORCA-job honokiol2-opt_EC2_closer
  O           0.67565435536443      2.08678341888156      1.10334896144627
  O          -3.65277694085430     -2.49091951096237      1.26580862444078
  C           1.27727808656791     -0.00524393249550      0.00787064736958
  C          -0.01901215837428     -0.65867921250133      0.33938752339676
  C          -2.44733174487908     -0.77001004797302      0.04344387494857
  C          -1.21001325599607     -0.18334279574271     -0.21410891944899
  C           3.45516876038877     -0.11894328296169     -1.10380997809997
  C           2.25090814623176     -0.70127746075346     -0.71093716645823
  C           1.54794057270228      1.32552874669122      0.37206456140294
  C          -0.08713045835613     -1.77433446415959      1.17548259187716
  C          -2.47891070933495     -1.88031298939646      0.90094104805722
  C          -3.71363525122193     -0.20975611280264     -0.57447526682577
  C           4.48003141513916     -0.91377922886005     -1.89154003201862
  C           3.67577225695065      1.21335912801732     -0.76129320073075
  C          -1.30404369389648     -2.37917161557387      1.45373604774538
  C           2.73761674900451      1.92618590096237     -0.02694689452103
  C          -4.48710112803137     -1.21129896487266     -1.39206949413594
  C           3.99632761539838     -1.33057773714095     -3.25345380360605
  C          -5.77804033350046     -1.49259949634987     -1.23448941975676
  C           3.93858406953062     -2.58138029304397     -3.69487315814926
  H          -1.17508605316561      0.67676629276188     -0.87236035778525
  H           2.04111957815525     -1.72617647042659     -0.99615852007163
  H           0.81813930580862     -2.16394444462662      1.62407050503345
  H          -4.36653615573363      0.21492980533185      0.19463402842940
  H          -3.43130011062026      0.62741709395749     -1.21781736624943
  H           4.77947835128802     -1.80421057440275     -1.33024669938137
  H           5.37913875755945     -0.29907903441873     -2.00551660226062
  H           4.59992143002727      1.69835670812615     -1.05529612317574
  H          -1.36278858596583     -3.23849665829512      2.10933393370201
  H           2.92301827174548      2.95059473213545      0.27033122711832
  H          -3.92187027422877     -1.73107128092502     -2.16207235030261
  H           3.66855152497250     -0.52226965069183     -3.90282684091115
  H           0.20089735447934      1.54914423754553      1.76264068237331
  H          -4.33562063034644     -2.31342857763818      0.60090037209530
  H          -6.28153738039193     -2.21653195757535     -1.86298126746239
  H          -6.38139757133782     -0.98892135699114     -0.48604634661491
  H           3.58132826663575     -2.81713412422131     -4.68965772131817
  H           4.24877731238715     -3.41702891375082     -3.07635860651792
  H          -4.24814890295727      1.58035545483537      4.93741715115529
  H          -3.92074450686591     -0.77920947494235      5.36458400099324
  C          -4.02681219024209      0.98637526851159      4.04927801435540
  O          -2.16174771175724     -0.36277524161043      4.37156173666912
  C          -1.78323108959843      0.73915169500022      3.70427632909262
  C          -3.60331033206498     -0.44518213071413      4.37952162409213
  O          -2.84100888316104      1.52794744779151      3.43014231025452
  O          -0.65535138022191      1.00002098501167      3.39920840980616
  H          -4.84504197075390      1.06368779563175      3.33828640058207
  H          -3.90650131154884     -1.16773268348844      3.62106030350923
  O          -5.05119384756069      2.67334095803691      1.32659048941143
  C          -4.04082273390761      3.31000022754097      1.27942138486873
  O          -3.07639784247942      3.14827470223388      0.35026877363027
  O          -3.71062616829064      4.28906181800108      2.14863320871703
  C          -2.04039196022576      4.13410561796331      0.53776951109826
  C          -2.34039251964061      4.67737191756972      1.93538562482260
  H          -1.07348272570161      3.64085050416631      0.46739353410171
  H          -2.14398609921689      4.88966485226313     -0.24289468720455
  H          -2.27356343528674      5.76065231119831      2.00826607906732
  H          -1.72547608492008      4.21019615044227      2.70476028474338
