58
Coordinates from ORCA-job honokiol2-opt_FEC2
  O           1.63866272126036      1.88940651648488      2.17483799590727
  O          -3.65179222198007     -1.52638930999054      2.01317165214237
  C           1.49312449771298      0.20795497520611      0.40632841034614
  C           0.13919323227994     -0.26065646714239      0.81375115813148
  C          -2.25837954444339     -0.42042881363106      0.35512839902783
  C          -0.97229888747917     -0.01563822116558      0.00422849310323
  C           3.39943461003534      0.02420933978451     -1.12111616008347
  C           2.12613949027986     -0.35780556339389     -0.70223060345366
  C           2.16618852077905      1.22091906241269      1.11173741567273
  C          -0.05695615015306     -0.96613177196702      2.00268697747154
  C          -2.41818449616113     -1.12746304002334      1.55539092457434
  C          -3.44540813006949     -0.05694437560876     -0.51447118829737
  C           4.05745721247532     -0.63862791707443     -2.31705586723686
  C           4.04830302929601      1.01841271334306     -0.39083091640550
  C          -1.32164258999984     -1.40806813740352      2.36327940325745
  C           3.44283990730860      1.61084456183477      0.70800895612596
  C          -4.22841587129664     -1.24661998587428     -1.00411898096450
  C           3.26204079787771     -0.51637234945490     -3.58732394713215
  C          -5.53512912654572     -1.42935476118174     -0.83169911805205
  C           2.84423347345318     -1.53531438475522     -4.32872114283899
  H          -0.84189166555931      0.54430153231898     -0.91378959866228
  H           1.60117661310764     -1.13339589462390     -1.24848333325989
  H           0.78753113634893     -1.18446522119788      2.64481174153732
  H          -4.11470479720777      0.61881705379647      0.02945785257279
  H          -3.07401784882649      0.50707154630165     -1.37399285583944
  H           4.23806912758679     -1.69803313371691     -2.10842881313427
  H           5.04072384861399     -0.17984545127198     -2.46609751113964
  H           5.04434612661547      1.33483689752942     -0.68023956635055
  H          -1.47142209317222     -1.97436335979353      3.27359462047801
  H           3.94760720094377      2.38566172705486      1.27182304483301
  H          -3.65400873669142     -2.00260883389989     -1.53386805765953
  H           3.02000652830780      0.49811847597604     -3.89506114373166
  H           0.72127776363338      1.63907885667367      2.37036394327521
  H          -4.26663679998798     -1.60817529645399      1.26757394639499
  H          -6.04183338983009     -2.30474940984206     -1.21805352801897
  H          -6.14984313663709     -0.69446542746769     -0.32116727046366
  H           2.27647313366784     -1.38101650729184     -5.23783879778884
  H           3.05789413484450     -2.56299196295896     -4.05412744631559
  H          -5.02663741557926      0.99177721518561      3.55460617808196
  H          -3.60281358439198     -0.62149381021209      4.67201557475620
  O          -2.10954406981958      0.79236647259432      4.87899711903846
  C          -3.47926698675927      0.39681013611808      5.03961540313488
  C          -4.23783919073551      1.40250639597532      4.18035695305937
  C          -2.00390717746765      1.65115811400559      3.85014267095337
  O          -0.98838724867239      2.08212814028688      3.40756181099957
  O          -3.24396313494557      1.96413269405456      3.36612743518364
  F          -4.79220160159416      2.39399396360672      4.95821632247863
  H          -3.75245070467755      0.47217043562123      6.08959844071451
  H           0.99386113596673      5.99812879484987     -1.05288249367252
  H           1.92413234238141      4.46926294928065     -1.13706755195399
  C           0.93293616176288      4.91219016287777     -1.03813240486378
  F          -0.52164541230473      5.41481707104936      0.78832653841238
  C           0.19677379237535      4.40045256411054      0.19809298055132
  H           0.81733621095603      3.92992867000178      0.95729581572801
  O           0.11132374740742      4.46871311620474     -2.12793054565525
  O          -0.69888228152412      3.45213608413713     -0.32094731520851
  C          -0.78998783151311      3.57104712452120     -1.68045862673892
  O          -1.54543261865245      2.95113579309882     -2.35534092182226
