48
Coordinates from ORCA-job honokiol2-opt_FEC
  O           1.58874889385723      1.83851586211085      2.18158572754868
  O          -3.67012529677869     -1.70327159825964      2.21669473058633
  C           1.32962719492519      0.21892317210287      0.37077954179091
  C           0.01484831321146     -0.28310134331662      0.84856299590582
  C          -2.35400028794839     -0.73176747355349      0.41708001671090
  C          -1.10661075553902     -0.25905975848658      0.01505772348015
  C           3.13565522290997      0.09249355846200     -1.27915886602412
  C           1.89373280464937     -0.30846485796972     -0.79433060323137
  C           2.04138068425509      1.21786877800107      1.06082666544278
  C          -0.13764740105095     -0.82711605596588      2.12731768064120
  C          -2.46893884082296     -1.26603649573672      1.70788826179897
  C          -3.55495907838976     -0.63285853971066     -0.50156267419599
  C           3.71995474721894     -0.52878028456398     -2.53450757998437
  C           3.82613634200217      1.06805800261205     -0.56092271155957
  C          -1.36315809142195     -1.32177606507855      2.54866567889149
  C           3.28756457077085      1.62593545808218      0.58798062689390
  C          -4.19057727647454     -1.96233179012724     -0.81651280983654
  C           2.86624457388774     -0.33235544864089     -3.75650028120829
  C          -5.47259212209981     -2.26261586475774     -0.62599238640333
  C           2.38478431418927     -1.30701342839992     -4.51909208870605
  H          -1.00937172386259      0.16840509775389     -0.97647221018386
  H           1.34343457485027     -1.07724242149022     -1.32552118375753
  H           0.71384166818737     -0.87962750953983      2.79396348207893
  H          -4.31001009430449      0.03369447855410     -0.07000412589802
  H          -3.22921377130236     -0.16776522919831     -1.43620564915757
  H           3.88880702542945     -1.59993506531883     -2.38384108624359
  H           4.70349291312436     -0.08138005280274     -2.71258260027932
  H           4.79849570295482      1.40178142587645     -0.90580537174155
  H          -1.47585680400982     -1.76150724782582      3.53154993170440
  H           3.81390338527176      2.39836639581392      1.13395449302092
  H          -3.52383252390136     -2.71799376993219     -1.22422035649891
  H           2.63753137110627      0.70068157179759     -4.00771084042196
  H           0.64812546989247      1.67740331230650      2.34977884131400
  H          -4.24811684104354     -1.98939673747306      1.49295549298672
  H          -5.87080106593547     -3.23719473162701     -0.87854809291734
  H          -6.17526608885844     -1.53489627444927     -0.23199448024411
  H           1.77823170075310     -1.09886812145825     -5.39188133937207
  H           2.58518086739440     -2.35072063968814     -4.30066183644929
  H          -5.04163509286989      0.92462832043408      3.17156777436495
  H          -3.80917446205089     -0.45101170536682      4.74117640115885
  O          -2.38990411243801      1.03349213559155      4.97361922592379
  C          -3.76186624272824      0.61428425511851      4.96460688366261
  C          -4.37877337237956      1.45459300958003      3.85132889721757
  C          -2.12437204121831      1.74583857233593      3.86358625100264
  O          -1.05520745157409      2.14648085887198      3.53804547413147
  O          -3.27214698793271      1.93826098829694      3.14162705965270
  F          -5.07808350594481      2.52179865169622      4.37236350815512
  H          -4.20982690456085      0.83306361413944      5.93131694134894
