48
Coordinates from ORCA-job honokiol2-opt_FEC
  O           1.57987926370517      1.84945975699466      2.17556621309874
  O          -3.68543940335354     -1.69687965430054      2.19434113368180
  C           1.31984655911503      0.22960053545187      0.36559515484574
  C           0.00278450076906     -0.26862529529878      0.84035253726787
  C          -2.36144330548074     -0.73234532608595      0.39759656868659
  C          -1.11354758832275     -0.25756926053136     -0.00036300181343
  C           3.13244304973318      0.09126857538695     -1.27593787764286
  C           1.88655387263763     -0.30325440174950     -0.79570706640281
  C           2.03325974655289      1.22721019531207      1.05645636734597
  C          -0.15741068872855     -0.80000681013790      2.12359639554345
  C          -2.48439152592681     -1.25629278382308      1.69197157252051
  C          -3.55610976058040     -0.64396064824703     -0.53051560692774
  C           3.72023488963735     -0.53670512840994     -2.52637973691454
  C           3.82383555182426      1.06570649379708     -0.55743185444251
  C          -1.38382947600834     -1.29630258671973      2.54064711258133
  C           3.28298120354692      1.62890735818588      0.58793805216604
  C          -4.19239643065478     -1.97600166460603     -0.83367584545776
  C           2.87020773860082     -0.34693592564700     -3.75195225295461
  C          -5.47621395171718     -2.27130121922456     -0.64742131541053
  C           2.39149046201443     -1.32578405590815     -4.51089535811615
  H          -1.01232999753013      0.16065704161248     -0.99539881545518
  H           1.33590518335118     -1.07164203350123     -1.32703544967909
  H           0.68862753560195     -0.84181865568968      2.79786306905955
  H          -4.31324687993714      0.02901189854395     -0.11205791902045
  H          -3.22301255990092     -0.19111330761187     -1.46847592542945
  H           3.88852159826144     -1.60705064392647     -2.36931795933925
  H           4.70435810205592     -0.09040388650996     -2.70398833494140
  H           4.79904745412768      1.39415771365506     -0.89933200902928
  H          -1.49754089022814     -1.72690401463175      3.52762168389382
  H           3.81013747739835      2.40045285242117      1.13431842874721
  H          -3.52496007203405     -2.73788762879343     -1.22854448082936
  H           2.64206301967523      0.68469923845644     -4.00936744016288
  H           0.63410121963655      1.71055223848573      2.33550601763123
  H          -4.26277030908856     -1.97771336453867      1.46792136055006
  H          -5.87504305717476     -3.24791845144098     -0.89098477529995
  H          -6.17957953757623     -1.53758204347102     -0.26602095040162
  H           1.78778329696929     -1.12254161325548     -5.38680425334059
  H           2.59156262125185     -2.36824404293073     -4.28626849817240
  H          -5.02488789464372      0.93166307467437      3.19973234081879
  H          -3.75844066901337     -0.46915612099459      4.72100383039978
  O          -2.36539940031852      1.03348470445879      4.99667767313768
  C          -3.72947003373157      0.58993459839533      4.97551603919773
  C          -4.36043476130536      1.45055886003876      3.88641133395978
  C          -2.11146917955460      1.77339526453474      3.90243181381911
  O          -1.05039970926648      2.20163718435176      3.58596569952587
  O          -3.26297928938785      1.95865253566924      3.18171493316103
  F          -5.06355305110014      2.50070478964797      4.43889731713647
  H          -4.18167082050150      0.77070466671112      5.94808521150767
