58
Coordinates from ORCA-job honokiol3_FEC2
  O           1.96580307259415      1.18170168287229      2.75004233022268
  O          -3.64086885706095     -1.86363801514660      2.15724390030801
  C           1.42906411230970      0.11080877225644      0.61606040596895
  C           0.10099174908051     -0.39218495480428      1.03435415399343
  C          -2.23928872318236     -0.81360009363233      0.47656384761504
  C          -0.98026661418628     -0.32590034121457      0.15294583039861
  C           3.10860052737857      0.28700721238461     -1.15831643930635
  C           1.86715836829844     -0.12184882881317     -0.69079156498175
  C           2.28776559068316      0.81765337001565      1.47744644527676
  C          -0.10799061612590     -0.99338462336026      2.27790388792666
  C          -2.41485192297565     -1.40821467927183      1.73118490401262
  C          -3.38819036117532     -0.67440410395236     -0.49341716860864
  C           3.52551004349211      0.01132147569996     -2.58733733606589
  C           3.95629280289902      0.93867542173521     -0.26570063049613
  C          -1.35230875538808     -1.49905891629625      2.62080946125780
  C           3.55255755844643      1.19932434280379      1.03388355882950
  C          -3.99987734592804     -1.99603885022575     -0.87007991464122
  C           2.43553580263315      0.29589479994363     -3.57836421978779
  C          -5.27819661836236     -2.32244363400417     -0.70338287940968
  C           1.92731336598702     -0.59676298471191     -4.41789108253964
  H          -0.84975004793239      0.15200067760450     -0.80838411916275
  H           1.20948645149738     -0.65309211042521     -1.36614493393972
  H           0.71205059526721     -1.08759263695136      2.97633920279087
  H          -4.16698819112217     -0.02460245140854     -0.07996768199010
  H          -3.01570537539896     -0.18593014201877     -1.39589455714264
  H           3.84727741159367     -1.03017580352916     -2.69113841011197
  H           4.39886729366533      0.63053272399773     -2.81616016406177
  H           4.93890396592877      1.25914129289181     -0.59168855830131
  H          -1.50967932591712     -1.98088511765195      3.57682323684860
  H           4.19491719554609      1.73172597774596      1.72327939117593
  H          -3.31374023081474     -2.72458583652146     -1.29353053051910
  H           2.03420163841803      1.30486685757286     -3.56237565906031
  H           1.00542319051696      1.24022738332154      2.87699725925591
  H          -4.16865091573862     -2.13804950497816      1.39039731417387
  H          -5.66078682587208     -3.29218942822351     -0.99397316028860
  H          -5.99282145757925     -1.61605490202757     -0.29266595483458
  H           1.13180674128268     -0.33871222219224     -5.10517234002948
  H           2.29124001097642     -1.61851170857866     -4.44577774621117
  H          -4.44488279031890      0.79645171117598      2.24181101764990
  H          -3.55636766559340     -0.35581431949235      4.16688929576400
  O          -2.18475432286283      1.16273865803367      4.46178542677124
  C          -3.54107151813290      0.72633626877051      4.26846356597826
  C          -3.95857810250775      1.42769974403197      2.98021359911573
  C          -1.75426258157199      1.79387136668546      3.36325573985061
  O          -0.64478725444458      2.20000444808300      3.19256015933214
  O          -2.75167461785612      1.91576840240783      2.45150719708479
  F          -4.78748920051953      2.49097793532970      3.24325546886027
  H          -4.14014284570293      1.05398610578444      5.11458275889288
  H           1.94943539439374      4.82582683608546     -0.64473126386830
  H           2.34555418556376      3.20611732360174      0.02110603641263
  C           1.57785078300016      3.82514593039778     -0.43872035999887
  F          -0.27484231038300      5.10473297630129      0.36040932580840
  C           0.30165532475343      3.85260812792038      0.39425789490601
  H           0.40124527522338      3.55433672463147      1.43381209685157
  O           1.16017507350834      3.21608300895159     -1.67158240193219
  O          -0.54608368017816      2.95355831799960     -0.26963752616813
  C          -0.05740929096932      2.66935928036959     -1.50934178845111
  O          -0.63565997003591      2.01461897022494     -2.31878293582447
