58
Coordinates from ORCA-job honokiol2-opt_EC2_closer
  O           0.67672008827174      2.08675315142242      1.11106428670573
  O          -3.65300428065685     -2.50075167759016      1.25138397145412
  C           1.27654012813250     -0.00503809374805      0.01115956939870
  C          -0.01878555349118     -0.66108786698511      0.33930695282472
  C          -2.44731229263187     -0.77105500563223      0.04103995094688
  C          -1.21014322476938     -0.18235144134787     -0.21122335085652
  C           3.45393435539539     -0.11508428675345     -1.10383732891216
  C           2.25157890343223     -0.69939729882087     -0.70764782788675
  C           1.54560452819553      1.32632961935316      0.37407257453858
  C          -0.08760653785246     -1.78210830356470      1.16829586720976
  C          -2.47921760026319     -1.88661053167765      0.89193561156904
  C          -3.71197807034698     -0.20687495782479     -0.57566921607071
  C           4.47927311668618     -0.91008804194583     -1.89067230249561
  C           3.67113028152904      1.21860925366773     -0.76518615591302
  C          -1.30462470668098     -2.38838537096766      1.44245535630610
  C           2.73227883932617      1.92934187154150     -0.02972469756891
  C          -4.48491823856432     -1.20494800972330     -1.39839871228761
  C           3.99355162310521     -1.33584074801037     -3.24905131767133
  C          -5.77570055512464     -1.48812464160441     -1.24310959756566
  C           3.94061099104897     -2.58891106846064     -3.68452163068755
  H          -1.17503672818151      0.68205116920802     -0.86392260395577
  H           2.04361140541136     -1.72497648141964     -0.99178209109144
  H           0.81736766235719     -2.17398184156323      1.61559280117634
  H          -4.36553715464971      0.21529955429382      0.19396953653341
  H          -3.42867468549711      0.63310586834008     -1.21482482365299
  H           4.78306126710295     -1.79627284724976     -1.32495598250304
  H           5.37615845672478     -0.29310510672773     -2.00999119168507
  H           4.59244698753286      1.70645730136810     -1.06329695371617
  H          -1.36390239827287     -3.25222859181090      2.09206482654114
  H           2.91568635642217      2.95482451485197      0.26527422944394
  H          -3.91897885941309     -1.72144747549258     -2.17012600161727
  H           3.66006397000704     -0.53206012277387     -3.90114870981576
  H           0.20505374031073      1.54849301079350      1.77162972655439
  H          -4.33585314196381     -2.31561619197646      0.58858732140148
  H          -6.27806903783577     -2.21041412201443     -1.87435731107219
  H          -6.38010884127116     -0.98741287450743     -0.49346690333096
  H           3.58146000497422     -2.83062498473078     -4.67719028752621
  H           4.25666891402191     -3.42030492323146     -3.06328209196398
  H          -4.23168225448198      1.58416695445693      4.95262395897538
  H          -3.92376876979922     -0.78123383980668      5.36342452581511
  C          -4.01872201823985      0.99384823464603      4.06049618877067
  O          -2.16172244324929     -0.36676494000070      4.37360666960412
  C          -1.77735023426580      0.73657971319350      3.71274858088346
  C          -3.60394927032796     -0.44202648631798      4.38092717894798
  O          -2.83090103738930      1.53251531752176      3.44133203233440
  O          -0.64827317696291      0.99524112013472      3.41010805614470
  H          -4.83968949328633      1.08274625573680      3.35503031795076
  H          -3.91144042379199     -1.15729865518364      3.61732488432544
  O          -5.05016960857987      2.66625789512994      1.34922915491094
  C          -4.04254746174534      3.30521880699106      1.29174936772255
  O          -3.08667664680244      3.14374037756662      0.35478053247379
  O          -3.70822885028484      4.28959673317749      2.15340681810952
  C          -2.04933244574050      4.12939723298614      0.53060017030302
  C          -2.34075436296345      4.67938622553156      1.92811432711059
  H          -1.08344185836114      3.63483009675602      0.45422860807407
  H          -2.15667636424457      4.88199239629283     -0.25245917547072
  H          -2.27512435938951      5.76314209074170      1.99577485422352
  H          -1.71961058491470      4.21780611406085      2.69609643343289
