38
Coordinates from ORCA-job honokiol
  O           0.15312102454488      2.13343120436052     -1.67590367120915
  O          -4.13487143118894     -1.19075530828081      1.47081954996769
  C           1.01693023281403      0.50894584234655     -0.15640088420769
  C          -0.34502246573967      0.09773722016955      0.27319730245381
  C          -2.61958331030638     -0.63976098707329     -0.27058802096712
  C          -1.35100307120040     -0.20843807801842     -0.65086845041598
  C           3.44896066743263      0.25230068903993      0.07288602410564
  C           2.14201695679027     -0.09130027508522      0.41864114862240
  C           1.23676109824314      1.50567854988512     -1.12551296539534
  C          -0.65049446529841     -0.04241634473420      1.63063746358919
  C          -2.88979344488596     -0.76659776046126      1.09935757552321
  C          -3.67653654297088     -0.94478560255717     -1.31267060706420
  C           4.63212935977142     -0.44305537701050      0.72135550208329
  C           3.62747336695758      1.23860657970389     -0.89524432538709
  C          -1.90643440923255     -0.46973892166551      2.04073876181567
  C           2.53398746423104      1.85982074604964     -1.48774414962029
  C          -4.58876410754176      0.22525525724586     -1.58219743172230
  C           4.78093925563701     -1.87946428230090      0.29702612490088
  C          -5.91441963838845      0.20290848803457     -1.48873575767423
  C           4.77938304323799     -2.92435782790847      1.11931460765706
  H          -1.13952695001391     -0.12476845162788     -1.70961207583340
  H           1.98294035152223     -0.86702645522457      1.15928506280685
  H           0.09608291115120      0.19084124967120      2.37981077197334
  H          -3.16405067486491     -1.20718429615852     -2.24356376768082
  H          -4.27247294088144     -1.80866620228601     -1.01250224606291
  H           5.54119596963081      0.10199783529178      0.44787764724924
  H           4.54381630010845     -0.39761792245629      1.81057232085140
  H           4.62851186212657      1.53082224918886     -1.19151456881769
  H          -2.13213077513033     -0.57073947059854      3.09687281978847
  H           2.68167128612134      2.63537637201837     -2.23170395273761
  H          -4.09183242446381      1.14509919543654     -1.88255866385622
  H           4.89560620809640     -2.04411479594299     -0.77225145559248
  H           0.45136064705634      2.81030957368106     -2.29834789350759
  H          -4.18450785591984     -1.26405363574356      2.43357788198012
  H          -6.51163389601804      1.07974236646765     -1.70978011743774
  H          -6.44766000870307     -0.69362887413348     -1.18936683305828
  H           4.89548038803733     -3.93630329586660      0.74937103282918
  H           4.66317001923810     -2.80169925345690      2.19142624005067
