58
Coordinates from ORCA-job honokiol2-opt_FEC2
  O           1.43781396900000      1.31956612350000      2.48468433320000
  O          -3.62347843920000     -2.41724762610000      2.17112963580000
  C           1.23165087470000     -0.04524406270000      0.48175268560000
  C          -0.05012954590000     -0.65101744070000      0.92722451690000
  C          -2.40247599360000     -1.17018447500000      0.48054858120000
  C          -1.18619584650000     -0.59889388850000      0.11437325590000
  C           2.98671349430000      0.16172341260000     -1.21215839740000
  C           1.78640847770000     -0.37901636020000     -0.75579095660000
  C           1.91364468120000      0.89170120950000      1.27839826480000
  C          -0.16528004600000     -1.31154866720000      2.15724603160000
  C          -2.47719084920000     -1.83509953480000      1.71527307380000
  C          -3.61882313160000     -1.03763140150000     -0.41452229490000
  C           3.55763066370000     -0.24510356890000     -2.55778596310000
  C           3.64211878060000      1.07664773960000     -0.38967757000000
  C          -1.36131883290000     -1.89633601260000      2.54500150930000
  C           3.11264860070000      1.44271939200000      0.83960929680000
  C          -4.20446513090000     -2.35282844000000     -0.86066146780000
  C           2.68255033670000      0.13917581890000     -3.71901332380000
  C          -5.47582989440000     -2.71293389460000     -0.70951440370000
  C           2.19414321790000     -0.70348418130000     -4.62143192850000
  H          -1.12460822710000     -0.07615306410000     -0.83348737780000
  H           1.26403225670000     -1.10060012980000     -1.37392145730000
  H           0.70081798330000     -1.40372573930000      2.80194484010000
  H          -4.39612253760000     -0.45202524560000      0.08900696020000
  H          -3.32510329970000     -0.46649040200000     -1.30004366120000
  H           3.73330844460000     -1.32510454920000     -2.58297114510000
  H           4.53597071850000      0.23246026540000     -2.67605930200000
  H           4.58076893340000      1.51307857940000     -0.71196482830000
  H          -1.44513104880000     -2.42398580470000      3.48636157770000
  H           3.61250715710000      2.16559210090000      1.47150912260000
  H          -3.51037409870000     -3.04098535600000     -1.33664325470000
  H           2.44395701100000      1.19733239240000     -3.79630315120000
  H           0.56607731200000      0.93171817040000      2.64077888840000
  H          -4.23488212900000     -2.57265466930000      1.43672265040000
  H          -5.83907487280000     -3.67107868740000     -1.05895616460000
  H          -6.20283074610000     -2.05403842650000     -0.24523589970000
  H           1.57171583630000     -0.36205147410000     -5.43930106680000
  H           2.40419585080000     -1.76704531170000     -4.57823511470000
  H          -3.78191244770000      1.50466887500000      2.43015644830000
  H          -3.88679294220000      0.28875407670000      4.54620478080000
  O          -2.30656501090000      1.51003978650000      4.95348577760000
  C          -3.64995868060000      1.34915066900000      4.60712817320000
  C          -3.79263489630000      2.14557485410000      3.31297772410000
  C          -1.75358670240000      2.55450633980000      4.24582716690000
  O          -0.67047943470000      2.99016864470000      4.43335557210000
  O          -2.62913490350000      2.97815765240000      3.30633916110000
  F          -4.68416666070000      2.76890574190000      3.31979296940000
  H          -4.44247414780000      1.89134557790000      5.59669686450000
  H           1.83295210140000      6.50494208700000     -0.79067996660000
  H           2.84549881300000      4.80613906110000     -0.52766584880000
  C           1.81704512550000      5.13131494830000     -0.67180073410000
  F           0.55005247840000      5.52498186090000      1.05505045060000
  C           0.81886212880000      4.69981318270000      0.39904914390000
  H           1.17941656960000      3.85098026970000      0.98187529390000
  O           1.30977679220000      4.57340494080000     -1.84738077030000
  O          -0.32738001940000      4.30004615430000     -0.35812663550000
  C          -0.00006665080000      4.18763993270000     -1.66538062390000
  O          -0.71024968950000      3.80332830260000     -2.52913897110000
