58
Coordinates from ORCA-job honokiol2-opt_FEC2
  O           1.63777150326183      1.86949987696319      2.14165668813977
  O          -3.63642813263536     -1.52841120038127      2.04582409194703
  C           1.48709547224350      0.20089278854531      0.36724134728649
  C           0.14082672593965     -0.27066862545412      0.79267728451553
  C          -2.25735391076851     -0.45983883037203      0.35324549348193
  C          -0.97724880761348     -0.05468560847760     -0.01589899508337
  C           3.36878049202966      0.04905863321438     -1.19242126662917
  C           2.10802777169132     -0.35182749644833     -0.75455920888835
  C           2.16042123204652      1.22034643549866      1.06360099877902
  C          -0.04438077769010     -0.94343878777159      2.00302948892502
  C          -2.40689729261977     -1.13395824537924      1.57391037056142
  C          -3.45183242724591     -0.13421259275075     -0.52075404873606
  C           4.01743598675867     -0.59992958018907     -2.40171263314051
  C           4.01743154231610      1.04958003701574     -0.47086626772957
  C          -1.30433006218359     -1.38202701784805      2.38414992133478
  C           3.42291693969534      1.63130737678099      0.64027024617196
  C          -4.21259302832594     -1.34833331427706     -0.98526066947752
  C           3.18114823663647     -0.52526012396011     -3.64896770682326
  C          -5.51399853781560     -1.55530287225928     -0.80091429162282
  C           2.78222635797417     -1.56960793131926     -4.36505107695145
  H          -0.85610801067302      0.48234992995686     -0.94868405443897
  H           1.58321928008598     -1.13034437296039     -1.29676987703515
  H           0.80567698383697     -1.13873664825700      2.64524678393183
  H          -4.13327466119454      0.53802655416082      0.01205110712601
  H          -3.09236767836684      0.41967648798678     -1.39181480348466
  H           4.24849306720421     -1.64856520037405     -2.18773966673582
  H           4.97592798270762     -0.10271909910772     -2.58462804177269
  H           5.00293422285467      1.38100060112413     -0.77852562239998
  H          -1.44714403748146     -1.92372124612571      3.31057126117981
  H           3.92686621332987      2.41083222051181      1.19822438086918
  H          -3.62502517708207     -2.10152288401977     -1.50435400942519
  H           2.89016947952692      0.47479705952228     -3.96134692480029
  H           0.72537497757461      1.59966195425737      2.33508595612398
  H          -4.24648306302407     -1.65281185848550      1.30226758188835
  H          -6.00432041004984     -2.44835256822951     -1.16743931662120
  H          -6.14135338203280     -0.82390186927547     -0.30079191112927
  H           2.18273142084651     -1.44942526814418     -5.25884127592877
  H           3.04427003607819     -2.58446046577987     -4.08468422850210
  H          -5.00052266373227      1.02715422355158      3.41062295661326
  H          -3.60649833513276     -0.52353503299153      4.64989745443064
  O          -2.13809736976879      0.91577780993469      4.85656650041169
  C          -3.50997032002341      0.51047247324136      4.97908623122779
  C          -4.24342128664921      1.47307912555346      4.05118651356951
  C          -2.00161869340290      1.73720166340266      3.80179911736362
  O          -0.97279046286718      2.15996505907079      3.38142036935526
  O          -3.22428182665768      2.02055100285915      3.26076344398620
  F          -4.84531321180761      2.48376578147836      4.76818834744304
  H          -3.82645516226825      0.62503146358394      6.01324872120298
  H           1.12648890790366      5.95533709865489     -0.85318350653116
  H           2.01487118149732      4.39868496083776     -0.77460728145720
  C           1.03360219833506      4.87324038866895     -0.79792844444887
  F          -0.62234153781346      5.48701215057992      0.80575263123677
  C           0.15951513420958      4.43544425115613      0.37325055980756
  H           0.68249713879565      4.02381733447709      1.23291386813367
  O           0.31226874778494      4.40050103269024     -1.94554471462595
  O          -0.67242281686273      3.45561073117840     -0.18716936013816
  C          -0.64199548824105      3.53273589927911     -1.55346663091733
  O          -1.34855890853474      2.90625608380145     -2.27417141036942
