48
Coordinates from ORCA-job honokiol2-opt_EC
  O           1.40394536236766      1.71265086054547      2.41382496343717
  O          -3.83321847192471     -1.82500349696993      2.35174490201986
  C           1.16399636020894      0.15955464868920      0.55666050161241
  C          -0.15290603109967     -0.35333915611507      1.01886559625642
  C          -2.51317832988485     -0.83560416138215      0.56660654625799
  C          -1.26676983852425     -0.34911594183167      0.17406978999539
  C           2.98744847952069      0.06988452126101     -1.07723087989819
  C           1.73747751416792     -0.33723720304261     -0.61711018104794
  C           1.87423469411898      1.13702132981886      1.27882773416336
  C          -0.31570717830351     -0.88770398481838      2.30089923544985
  C          -2.63637248272007     -1.36462687500533      1.85833866439033
  C          -3.70568397473616     -0.75626447658513     -0.36608612559490
  C           3.56938324679270     -0.50714909441101     -2.35395724800878
  C           3.67817704593287      1.01848006350993     -0.32347861158632
  C          -1.53912630466053     -1.39462462148548      2.71298164111527
  C           3.12881865403629      1.54884103487726      0.83426426195853
  C          -4.31020913734609     -2.09634865521682     -0.69523156597163
  C           2.83082875742748     -0.07479385458362     -3.59116519090887
  C          -5.58578578539434     -2.42733867036196     -0.51289691770483
  C           2.28171353132186     -0.89331904020005     -4.48098510636964
  H          -1.16641914323311      0.07467533195123     -0.81875685361673
  H           1.19018624469054     -1.08975313724116     -1.17439594548872
  H           0.52759667757493     -0.92094260607090      2.97894961221508
  H          -4.47881981321638     -0.10774577016177      0.05981107192748
  H          -3.37642707210039     -0.28067697246573     -1.29424733419251
  H           3.57973810074729     -1.60026272427748     -2.30666236935671
  H           4.61368621307688     -0.18682641781842     -2.43295188710070
  H           4.65837417861420      1.35187633612963     -0.64597834916141
  H          -1.65678356697302     -1.82447861023712      3.69945311570406
  H           3.65515036078652      2.30071745022616      1.40825797817405
  H          -3.62453582534693     -2.83350959990964     -1.10544444039156
  H           2.75047261188236      0.99976217377543     -3.73744825581044
  H           0.44185245175089      1.61624244512692      2.50692316259049
  H          -4.39753382998981     -2.11667037100236      1.61969015676610
  H          -5.96055055829128     -3.40890402558807     -0.77413616767786
  H          -6.30613515716538     -1.71867154765499     -0.11610353297016
  H           1.76336486154080     -0.51777755278348     -5.35466130923276
  H           2.33425689067462     -1.97135906034067     -4.36988909936325
  H          -5.16425865839553      2.56663299585035      4.23547698283221
  H          -4.23077069442860      1.07146301766924      5.89309643184704
  C          -4.66271924199479      1.69093195524065      3.82018131631111
  O          -2.55477971575207      1.31379601412417      4.71849651736824
  C          -2.41540178573838      1.94917212905984      3.53510894797928
  C          -3.91397205794698      0.86911137835734      4.87224940392221
  O          -3.61375460568297      2.13776474970511      2.94707679091828
  O          -1.37800238466255      2.30304209925413      3.06746589554026
  H          -5.36726217643843      1.09983789090688      3.23596793291158
  H          -3.95528756288356     -0.20132879431782      4.66993390818977
