58
Coordinates from ORCA-job honokiol3_FEC2
  O           1.64597770396610      1.69240927924484      2.13535735007796
  O          -3.62193685087454     -1.78047691037499      1.90011707286364
  C           1.49954925149539      0.05838953125313      0.32888283613718
  C           0.14966521474648     -0.42159901828654      0.73573058283083
  C          -2.23781698553069     -0.64876484478889      0.25201988701980
  C          -0.95929765630509     -0.21455009735126     -0.08860890962928
  C           3.39146429261473     -0.07410808578846     -1.22072046818941
  C           2.12498332512386     -0.47542354710958     -0.79984428671815
  C           2.17460647092117      1.05744350689471      1.05112878370793
  C          -0.04554216771911     -1.10858815062068      1.93656026864433
  C          -2.39609885432442     -1.34299017023440      1.46005827800132
  C          -3.42247736268874     -0.32926274461595     -0.63767922277681
  C           4.04191449261355     -0.69968831133647     -2.44081612435005
  C           4.04183136740878      0.90582093085982     -0.47265159834653
  C          -1.30419178577917     -1.57599939216429      2.28944705432236
  C           3.44370492933966      1.46734364488995      0.64649310227786
  C          -4.16473723878264     -1.54655981479933     -1.12384529075720
  C           3.20710724325399     -0.60071613189867     -3.68743133613851
  C          -5.46815592591173     -1.76330042325348     -0.96684950985392
  C           2.81606594671240     -1.63071921768433     -4.42820400053678
  H          -0.83152845074613      0.32770226863440     -1.01772604026471
  H           1.59903556785854     -1.23880489480146     -1.36194481821478
  H           0.79710561579933     -1.30105314804859      2.58950304919278
  H          -4.11784169185410      0.33306203748805     -0.11055582483067
  H          -3.05529415039787      0.23557228929748     -1.49845139518418
  H           4.27262288528263     -1.75226569351507     -2.24654466238272
  H           5.00073249722727     -0.19923447485517     -2.61295556239769
  H           5.03100866887601      1.23834483298821     -0.76682257727106
  H          -1.44911392880947     -2.14373083277815      3.19999189960040
  H           3.94716974056148      2.23477586386116      1.22209339784317
  H          -3.56190772229095     -2.29239327381786     -1.63604299726958
  H           2.91055987251162      0.40455873687132     -3.97667366827387
  H           0.73521009618367      1.41260714914092      2.31856244013242
  H          -4.22219056417927     -1.88359624075333      1.14500124850343
  H          -5.94468399025467     -2.65746208742879     -1.34852921646436
  H          -6.11026445792024     -1.03939749367171     -0.47468813788787
  H           2.21801866028597     -1.49340767430350     -5.32048257553726
  H           3.08363965637333     -2.65023832661775     -4.17081648556551
  H          -4.78114647872185      0.37414893718953      3.30630082169270
  H          -3.30015587601419     -0.76721756797346      4.85087776572450
  O          -2.04686270767242      0.87380120402889      4.87898560320950
  C          -3.35787767845253      0.30792328728310      5.01454004585850
  C          -4.16768277620564      1.01729483983639      3.93187164765561
  C          -1.97767136842480      1.59922019640162      3.74995118214963
  O          -0.99764579812248      2.12386441167736      3.32535844287323
  O          -3.19702878424416      1.64714399024578      3.14006106009508
  F          -4.98433338555521      1.97835407809284      4.48514914102400
  H          -3.74369241395548      0.52722408707148      6.00785691802492
  H           1.37740148093744      5.59733152621149     -0.55117497353820
  H           1.94307632802016      3.92559236344848     -0.21382281930874
  C           1.08672728800618      4.55353982936593     -0.46027382418156
  F          -0.72272850325052      5.54275133792920      0.74954687447675
  C          -0.05170015623581      4.35668077262934      0.53478024676208
  H           0.23411843600406      3.94715352009525      1.49967981164849
  O           0.52253913814009      4.10543978039905     -1.70219971919275
  O          -0.91157161186374      3.46572012526775     -0.12449655045887
  C          -0.60439123187681      3.40827796676126     -1.45679308409017
  O          -1.23955242619942      2.80948416171342     -2.26302774713921
