58
Coordinates from ORCA-job honokiol2-opt_FEC2
  O           1.63307109871013      1.90133267595694      2.13423136656460
  O          -3.61904202280199     -1.55793505159403      2.05586153939697
  C           1.49523183389881      0.20618369339977      0.38251701064465
  C           0.15182620674862     -0.27458921231098      0.81200045622027
  C          -2.24696895759067     -0.46278790367486      0.37335788271457
  C          -0.96805770823724     -0.04838741770611      0.00879677967811
  C           3.37169823506747      0.05907723059074     -1.18440206295330
  C           2.11788052226007     -0.35283108253935     -0.73490725938574
  C           2.15855482996406      1.23956028497096      1.06519600882712
  C          -0.02822813738121     -0.96813420607987      2.01042393316180
  C          -2.39138061785460     -1.15537738893825      1.58374413284728
  C          -3.44224802874592     -0.11946005851428     -0.49291266533112
  C           4.01973584701785     -0.59386973632637     -2.39124628567919
  C           4.00984007426481      1.07634634374578     -0.47696142264043
  C          -1.28694714014059     -1.41521024862611      2.38771188438388
  C           3.41344932117801      1.66190091151351      0.63068354944255
  C          -4.22603637164543     -1.32227008662625     -0.94883272781194
  C           3.18990164861639     -0.50511253390550     -3.64205441931481
  C          -5.53042204509332     -1.50601795721899     -0.76056323153344
  C           2.78094539513122     -1.54225712665084     -4.36285188236356
  H          -0.85501629211357      0.51028920608765     -0.91194297414592
  H           1.59989714016388     -1.14289480584013     -1.26684590307261
  H           0.82418668998492     -1.17361462159422      2.64657210225320
  H          -4.10850814944439      0.56775338847685      0.03967867774730
  H          -3.07801044835635      0.42326625006712     -1.36919145385912
  H           4.23635485704778     -1.64579048348405     -2.17881758619879
  H           4.98512363820345     -0.10783130581003     -2.56774422369930
  H           4.98985205618705      1.41700834934222     -0.79221192688317
  H          -1.42684362664918     -1.97107843851385      3.30605208849476
  H           3.91186953059548      2.45104425993330      1.17994386664385
  H          -3.65363255010581     -2.08785642754491     -1.46683392495612
  H           2.91233412638100      0.49941947342304     -3.95228371999198
  H           0.75850104144271      1.56681325870173      2.39177832766455
  H          -4.23418797148437     -1.66490011917712      1.31348999025950
  H          -6.03689558256141     -2.39202116798997     -1.12220150517901
  H          -6.14377877201477     -0.76207325470432     -0.26165624082977
  H           2.18590687748005     -1.41216793835556     -5.25820751002159
  H           3.02989437564419     -2.56106595364983     -4.08490610692371
  H          -4.99989999596977      1.00341343495476      3.34933119780391
  H          -3.68223372764868     -0.54674780306864      4.66641602913071
  O          -2.19884854472072      0.87256466081651      4.90853446168207
  C          -3.57980840454543      0.49031453886580      4.98385352210224
  C          -4.26057280359365      1.44761692272517      4.01126171442610
  C          -2.00602105862256      1.67367732910507      3.84667844083141
  O          -0.95562864456468      2.07497102235163      3.46361021501614
  O          -3.20255367027099      1.96095963797769      3.24867352522486
  F          -4.86922109596146      2.48253891570074      4.68670424616263
  H          -3.93406418130151      0.62797937343778      6.00273106495014
  H           1.11842593910038      5.96289951911815     -0.90484241174364
  H           2.02890000527350      4.41932380346125     -0.89076816179529
  C           1.04045993801246      4.87850695189322     -0.86962265184851
  F          -0.53530024704793      5.45583569005228      0.82582036670095
  C           0.21030168856023      4.41141370368813      0.32353270967404
  H           0.76358042301026      3.95653569762500      1.14162005202382
  O           0.28831488267171      4.42075546579098     -2.00314229439391
  O          -0.65930057404977      3.46042922796111     -0.23259301754691
  C          -0.65644721792050      3.54875411637706     -1.59763080062177
  O          -1.37637188157796      2.92686674123230     -2.30898030074948
