58
Coordinates from ORCA-job honokiol2-opt_FEC2
  O           1.63824909677042      1.88936265062467      2.17431092285594
  O          -3.65188587517096     -1.52441640532416      2.01576221511452
  C           1.49327916787190      0.20800135505525      0.40713313387750
  C           0.13899009106662     -0.25907887733168      0.81504199210044
  C          -2.25871660040562     -0.41851524771252      0.35771693212828
  C          -0.97291098703988     -0.01389106069073      0.00626481437497
  C           3.39909931909947      0.02481905905853     -1.12089645110409
  C           2.12618704501243     -0.35780495423283     -0.70152197723529
  C           2.16630800518018      1.22171516918973      1.11125625209447
  C          -0.05694155692663     -0.96364181212932      2.00467324217717
  C          -2.41844122335468     -1.12508348382951      1.55830169546400
  C          -3.44627953748273     -0.05430870938771     -0.51083482056200
  C           4.05725939637166     -0.63783035757013     -2.31695709149933
  C           4.04797565165938      1.01958754486965     -0.39128900214142
  C          -1.32164785511961     -1.40493369385347      2.36616084582692
  C           3.44226896634416      1.61258667892496      0.70712072368513
  C          -4.23018265808241     -1.24365463685061     -0.99979549865551
  C           3.26052917706348     -0.51847937856969     -3.58665087538672
  C          -5.53667232064213     -1.42618636581774     -0.82549816163669
  C           2.84351713586483     -1.53911984118936     -4.32616988069587
  H          -0.84275374090880      0.54561516126877     -0.91191809861861
  H           1.60098719156399     -1.13341929953041     -1.24756529441720
  H           0.78780249729793     -1.18167712964763      2.64656244685593
  H          -4.11473249034713      0.62141055583517      0.03404698422040
  H          -3.07553890620927      0.50991482285819     -1.37052317196102
  H           4.24009537368201     -1.69670058542154     -2.10743047979612
  H           5.03951422750892     -0.17737484892407     -2.46736497713433
  H           5.04354056393803      1.33655558706397     -0.68161074497466
  H          -1.47153062427949     -1.97120169945531      3.27654049574884
  H           3.94647709317127      2.38786059522954      1.27071302962830
  H          -3.65666091684815     -1.99966273132041     -1.53046010686330
  H           3.01667703704319      0.49520151557483     -3.89563341544651
  H           0.72074532750089      1.63771884281978      2.36864606269056
  H          -4.26572295534264     -1.60869770933683      1.26963130956132
  H          -6.04405388295072     -2.30151461830670     -1.21109246529151
  H          -6.15057305268820     -0.69112153840029     -0.31421819260915
  H           2.27466137461947     -1.38696021296288     -5.23496840966317
  H           3.05901058905377     -2.56607663134628     -4.05032527845196
  H          -5.02276706059681      0.98159505457270      3.54224894983784
  H          -3.59736106426593     -0.62684049632901      4.66561851149865
  O          -2.10870293800502      0.79175499527601      4.87454992006503
  C          -3.47794712834386      0.39230645405888      5.03197586927799
  C          -4.23659845436848      1.39515694360904      4.16940033457015
  C          -2.00273545636700      1.64911700697357      3.84475750234537
  O          -0.98719384268485      2.08035396617382      3.40282167445261
  O          -3.24220227349077      1.95908100817655      3.35784285899073
  F          -4.79591702869128      2.38577891581564      4.94532546417378
  H          -3.75448772423054      0.46824781469387      6.08099440012140
  H           0.99524072553535      5.99872224794330     -1.05144404761243
  H           1.92529854529273      4.46967551768663     -1.13731674024771
  C           0.93423191357840      4.91281298261260     -1.03745980155505
  F          -0.51905850733398      5.41529170312095      0.79010619863029
  C           0.19899670956151      4.40063762439164      0.19915603205532
  H           0.81892968775114      3.92992547852261      0.95861392894874
  O           0.11167319284673      4.47024977695650     -2.12680984656171
  O          -0.69730241969879      3.45316388327699     -0.31970884955942
  C          -0.78986597973931      3.57298767828142     -1.67888711254554
  O          -1.54659828803410      2.95405348385495     -2.35329147994644
