48

O        1.4378139690      1.3195661235      2.4846843332                 
O       -3.6234784392     -2.4172476261      2.1711296358                 
C        1.2316508747     -0.0452440627      0.4817526856                 
C       -0.0501295459     -0.6510174407      0.9272245169                 
C       -2.4024759936     -1.1701844750      0.4805485812                 
C       -1.1861958465     -0.5988938885      0.1143732559                 
C        2.9867134943      0.1617234126     -1.2121583974                 
C        1.7864084777     -0.3790163602     -0.7557909566                 
C        1.9136446812      0.8917012095      1.2783982648                 
C       -0.1652800460     -1.3115486672      2.1572460316                 
C       -2.4771908492     -1.8350995348      1.7152730738                 
C       -3.6188231316     -1.0376314015     -0.4145222949                 
C        3.5576306637     -0.2451035689     -2.5577859631                 
C        3.6421187806      1.0766477396     -0.3896775700                 
C       -1.3613188329     -1.8963360126      2.5450015093                 
C        3.1126486007      1.4427193920      0.8396092968                 
C       -4.2044651309     -2.3528284400     -0.8606614678                 
C        2.6825503367      0.1391758189     -3.7190133238                 
C       -5.4758298944     -2.7129338946     -0.7095144037                 
C        2.1941432179     -0.7034841813     -4.6214319285                 
H       -1.1246082271     -0.0761530641     -0.8334873778                 
H        1.2640322567     -1.1006001298     -1.3739214573                 
H        0.7008179833     -1.4037257393      2.8019448401                 
H       -4.3961225376     -0.4520252456      0.0890069602                 
H       -3.3251032997     -0.4664904020     -1.3000436612                 
H        3.7333084446     -1.3251045492     -2.5829711451                 
H        4.5359707185      0.2324602654     -2.6760593020                 
H        4.5807689334      1.5130785794     -0.7119648283                 
H       -1.4451310488     -2.4239858047      3.4863615777                 
H        3.6125071571      2.1655921009      1.4715091226                 
H       -3.5103740987     -3.0409853560     -1.3366432547                 
H        2.4439570110      1.1973323924     -3.7963031512                 
H        0.5660773120      0.9317181704      2.6407788884                 
H       -4.2348821290     -2.5726546693      1.4367226504                 
H       -5.8390748728     -3.6710786874     -1.0589561646                 
H       -6.2028307461     -2.0540384265     -0.2452358997                 
H        1.5717158363     -0.3620514741     -5.4393010668                 
H        2.4041958508     -1.7670453117     -4.5782351147                 
H       -5.6973789833      1.1800078606      2.7737960825                 
H       -5.5651622526     -0.2049184900      4.7476949045                 
C       -4.9794099843      0.3609755271      2.6989084121                 
O       -3.5706904103      0.2673555301      4.5400549755                 
C       -2.9269969865      0.9176821739      3.5356726118                 
C       -4.7584697031     -0.3553324078      4.0329996100                 
O       -3.6857991529      0.9072288735      2.4087212682                 
O       -1.8565330468      1.4219800809      3.6292654776                 
H       -5.2678457134     -0.3054866522      1.8885275117                 
H       -4.5701003552     -1.4239528007      3.9117293972                 
              
